<?xml version="1.0" encoding="UTF-8"?>

<!-- generated on Thu Mar 22 13:57:53 2018 by SUMO netconvert Version v0_32_0+0442-b3eeb5f
<configuration xmlns:xsi="http://www.w3.org/2001/XMLSchema-instance" xsi:noNamespaceSchemaLocation="http://sumo.dlr.de/xsd/netconvertConfiguration.xsd">

    <input>
        <node-files value="4way.nod.xml"/>
        <edge-files value="4way.edg.xml"/>
    </input>

    <output>
        <output-file value="4way.net.xml"/>
    </output>

</configuration>
-->

<net version="0.27" xmlns:xsi="http://www.w3.org/2001/XMLSchema-instance" xsi:noNamespaceSchemaLocation="http://sumo.dlr.de/xsd/net_file.xsd">

    <location netOffset="0.00,0.00" convBoundary="0.00,0.00,400.00,400.00" origBoundary="0.00,0.00,400.00,400.00" projParameter="!"/>

    <edge id=":1_0" function="internal">
        <lane id=":1_0_0" index="0" speed="20.00" length="5.99" width="4.00" shape="197.95,0.00 198.98,-1.54 200.00,-2.05 201.03,-1.54 202.05,0.00"/>
    </edge>
    <edge id=":101_0" function="internal">
        <lane id=":101_0_0" index="0" speed="20.00" length="4.68" width="4.00" shape="197.95,196.50 197.95,191.82"/>
    </edge>
    <edge id=":101_1" function="internal">
        <lane id=":101_1_0" index="0" speed="12.50" length="4.61" width="4.00" shape="197.95,196.50 198.31,194.04 199.39,193.10 200.05,193.32"/>
    </edge>
    <edge id=":101_2" function="internal">
        <lane id=":101_2_0" index="0" speed="12.50" length="2.53" width="4.00" shape="197.95,196.50 199.20,198.70"/>
    </edge>
    <edge id=":101_3" function="internal">
        <lane id=":101_3_0" index="0" speed="20.00" length="2.99" width="4.00" shape="197.95,196.50 198.98,194.96 200.00,194.45"/>
    </edge>
    <edge id=":101_16" function="internal">
        <lane id=":101_16_0" index="0" speed="12.50" length="4.47" width="4.00" shape="200.05,193.32 201.18,193.69 203.70,195.80"/>
    </edge>
    <edge id=":101_17" function="internal">
        <lane id=":101_17_0" index="0" speed="20.00" length="2.99" width="4.00" shape="200.00,194.45 201.03,194.96 202.05,196.50"/>
    </edge>
    <edge id=":101_4" function="internal">
        <lane id=":101_4_0" index="0" speed="5.00" length="1.82" width="4.00" shape="200.80,198.70 200.40,198.40 200.00,198.30 199.60,198.40 199.20,198.70"/>
    </edge>
    <edge id=":101_5" function="internal">
        <lane id=":101_5_0" index="0" speed="12.50" length="7.64" width="4.00" shape="200.80,198.70 199.55,197.20 198.66,195.55 198.13,193.76 197.95,191.82"/>
    </edge>
    <edge id=":101_6" function="internal">
        <lane id=":101_6_0" index="0" speed="12.50" length="2.53" width="4.00" shape="200.80,198.70 202.05,196.50"/>
    </edge>
    <edge id=":101_7" function="internal">
        <lane id=":101_7_0" index="0" speed="5.00" length="5.99" width="4.00" shape="200.80,198.70 200.43,196.88 200.80,195.80 201.88,195.43 203.70,195.80"/>
    </edge>
    <edge id=":101_8" function="internal">
        <lane id=":101_8_0" index="0" speed="12.50" length="4.42" width="4.00" shape="202.05,191.82 202.15,192.94 202.46,193.98 202.98,194.93 203.70,195.80"/>
    </edge>
    <edge id=":101_9" function="internal">
        <lane id=":101_9_0" index="0" speed="20.00" length="4.68" width="4.00" shape="202.05,191.82 202.05,196.50"/>
    </edge>
    <edge id=":101_10" function="internal">
        <lane id=":101_10_0" index="0" speed="12.50" length="5.48" width="4.00" shape="202.05,191.82 201.87,193.76 201.34,195.55 200.55,197.02"/>
    </edge>
    <edge id=":101_11" function="internal">
        <lane id=":101_11_0" index="0" speed="20.00" length="2.99" width="4.00" shape="202.05,191.82 201.02,193.36 200.00,193.87"/>
    </edge>
    <edge id=":101_18" function="internal">
        <lane id=":101_18_0" index="0" speed="12.50" length="2.16" width="4.00" shape="200.55,197.02 200.45,197.20 199.20,198.70"/>
    </edge>
    <edge id=":101_19" function="internal">
        <lane id=":101_19_0" index="0" speed="20.00" length="2.99" width="4.00" shape="200.00,193.87 198.97,193.36 197.95,191.82"/>
    </edge>
    <edge id=":101_12" function="internal">
        <lane id=":101_12_0" index="0" speed="12.50" length="4.42" width="4.00" shape="196.30,195.80 197.02,194.93 197.54,193.98 197.85,192.94 197.95,191.82"/>
    </edge>
    <edge id=":101_13" function="internal">
        <lane id=":101_13_0" index="0" speed="5.00" length="8.43" width="4.00" shape="196.30,195.80 198.15,194.41 200.00,193.95 201.85,194.41 203.70,195.80"/>
    </edge>
    <edge id=":101_14" function="internal">
        <lane id=":101_14_0" index="0" speed="12.50" length="9.09" width="4.00" shape="196.30,195.80 198.82,193.69 200.61,193.10 201.69,194.04 202.05,196.50"/>
    </edge>
    <edge id=":101_15" function="internal">
        <lane id=":101_15_0" index="0" speed="5.00" length="5.99" width="4.00" shape="196.30,195.80 198.12,195.43 199.20,195.80 199.57,196.88 199.20,198.70"/>
    </edge>
    <edge id=":102_0" function="internal">
        <lane id=":102_0_0" index="0" speed="12.50" length="4.42" width="4.00" shape="208.18,202.05 207.06,202.15 206.02,202.46 205.07,202.98 204.20,203.70"/>
    </edge>
    <edge id=":102_1" function="internal">
        <lane id=":102_1_0" index="0" speed="20.00" length="4.68" width="4.00" shape="208.18,202.05 203.50,202.05"/>
    </edge>
    <edge id=":102_2" function="internal">
        <lane id=":102_2_0" index="0" speed="12.50" length="5.48" width="4.00" shape="208.18,202.05 206.24,201.87 204.45,201.34 202.98,200.55"/>
    </edge>
    <edge id=":102_3" function="internal">
        <lane id=":102_3_0" index="0" speed="20.00" length="2.99" width="4.00" shape="208.18,202.05 206.64,201.02 206.13,200.00"/>
    </edge>
    <edge id=":102_16" function="internal">
        <lane id=":102_16_0" index="0" speed="12.50" length="2.16" width="4.00" shape="202.98,200.55 202.80,200.45 201.30,199.20"/>
    </edge>
    <edge id=":102_17" function="internal">
        <lane id=":102_17_0" index="0" speed="20.00" length="2.99" width="4.00" shape="206.13,200.00 206.64,198.97 208.18,197.95"/>
    </edge>
    <edge id=":102_4" function="internal">
        <lane id=":102_4_0" index="0" speed="12.50" length="4.42" width="4.00" shape="204.20,196.30 205.07,197.02 206.02,197.54 207.06,197.85 208.18,197.95"/>
    </edge>
    <edge id=":102_5" function="internal">
        <lane id=":102_5_0" index="0" speed="5.00" length="8.43" width="4.00" shape="204.20,196.30 205.59,198.15 206.05,200.00 205.59,201.85 204.20,203.70"/>
    </edge>
    <edge id=":102_6" function="internal">
        <lane id=":102_6_0" index="0" speed="12.50" length="9.09" width="4.00" shape="204.20,196.30 206.31,198.82 206.90,200.61 205.96,201.69 203.50,202.05"/>
    </edge>
    <edge id=":102_7" function="internal">
        <lane id=":102_7_0" index="0" speed="5.00" length="5.99" width="4.00" shape="204.20,196.30 204.57,198.12 204.20,199.20 203.12,199.57 201.30,199.20"/>
    </edge>
    <edge id=":102_8" function="internal">
        <lane id=":102_8_0" index="0" speed="20.00" length="4.68" width="4.00" shape="203.50,197.95 208.18,197.95"/>
    </edge>
    <edge id=":102_9" function="internal">
        <lane id=":102_9_0" index="0" speed="12.50" length="4.61" width="4.00" shape="203.50,197.95 205.96,198.31 206.90,199.39 206.68,200.05"/>
    </edge>
    <edge id=":102_10" function="internal">
        <lane id=":102_10_0" index="0" speed="12.50" length="2.53" width="4.00" shape="203.50,197.95 201.30,199.20"/>
    </edge>
    <edge id=":102_11" function="internal">
        <lane id=":102_11_0" index="0" speed="20.00" length="2.99" width="4.00" shape="203.50,197.95 205.04,198.98 205.55,200.00"/>
    </edge>
    <edge id=":102_18" function="internal">
        <lane id=":102_18_0" index="0" speed="12.50" length="4.47" width="4.00" shape="206.68,200.05 206.31,201.18 204.20,203.70"/>
    </edge>
    <edge id=":102_19" function="internal">
        <lane id=":102_19_0" index="0" speed="20.00" length="2.99" width="4.00" shape="205.55,200.00 205.04,201.03 203.50,202.05"/>
    </edge>
    <edge id=":102_12" function="internal">
        <lane id=":102_12_0" index="0" speed="5.00" length="1.82" width="4.00" shape="201.30,200.80 201.60,200.40 201.70,200.00 201.60,199.60 201.30,199.20"/>
    </edge>
    <edge id=":102_13" function="internal">
        <lane id=":102_13_0" index="0" speed="12.50" length="7.64" width="4.00" shape="201.30,200.80 202.80,199.55 204.45,198.66 206.24,198.13 208.18,197.95"/>
    </edge>
    <edge id=":102_14" function="internal">
        <lane id=":102_14_0" index="0" speed="12.50" length="2.53" width="4.00" shape="201.30,200.80 203.50,202.05"/>
    </edge>
    <edge id=":102_15" function="internal">
        <lane id=":102_15_0" index="0" speed="5.00" length="5.99" width="4.00" shape="201.30,200.80 203.12,200.43 204.20,200.80 204.57,201.88 204.20,203.70"/>
    </edge>
    <edge id=":103_0" function="internal">
        <lane id=":103_0_0" index="0" speed="12.50" length="4.42" width="4.00" shape="197.95,208.18 197.85,207.06 197.54,206.02 197.02,205.07 196.30,204.20"/>
    </edge>
    <edge id=":103_1" function="internal">
        <lane id=":103_1_0" index="0" speed="20.00" length="4.68" width="4.00" shape="197.95,208.18 197.95,203.50"/>
    </edge>
    <edge id=":103_2" function="internal">
        <lane id=":103_2_0" index="0" speed="12.50" length="5.48" width="4.00" shape="197.95,208.18 198.13,206.24 198.66,204.45 199.45,202.98"/>
    </edge>
    <edge id=":103_3" function="internal">
        <lane id=":103_3_0" index="0" speed="20.00" length="2.99" width="4.00" shape="197.95,208.18 198.98,206.64 200.00,206.13"/>
    </edge>
    <edge id=":103_16" function="internal">
        <lane id=":103_16_0" index="0" speed="12.50" length="2.16" width="4.00" shape="199.45,202.98 199.55,202.80 200.80,201.30"/>
    </edge>
    <edge id=":103_17" function="internal">
        <lane id=":103_17_0" index="0" speed="20.00" length="2.99" width="4.00" shape="200.00,206.13 201.03,206.64 202.05,208.18"/>
    </edge>
    <edge id=":103_4" function="internal">
        <lane id=":103_4_0" index="0" speed="12.50" length="4.42" width="4.00" shape="203.70,204.20 202.98,205.07 202.46,206.02 202.15,207.06 202.05,208.18"/>
    </edge>
    <edge id=":103_5" function="internal">
        <lane id=":103_5_0" index="0" speed="5.00" length="8.43" width="4.00" shape="203.70,204.20 201.85,205.59 200.00,206.05 198.15,205.59 196.30,204.20"/>
    </edge>
    <edge id=":103_6" function="internal">
        <lane id=":103_6_0" index="0" speed="12.50" length="9.09" width="4.00" shape="203.70,204.20 201.18,206.31 199.39,206.90 198.31,205.96 197.95,203.50"/>
    </edge>
    <edge id=":103_7" function="internal">
        <lane id=":103_7_0" index="0" speed="5.00" length="5.99" width="4.00" shape="203.70,204.20 201.88,204.57 200.80,204.20 200.43,203.12 200.80,201.30"/>
    </edge>
    <edge id=":103_8" function="internal">
        <lane id=":103_8_0" index="0" speed="20.00" length="4.68" width="4.00" shape="202.05,203.50 202.05,208.18"/>
    </edge>
    <edge id=":103_9" function="internal">
        <lane id=":103_9_0" index="0" speed="12.50" length="4.61" width="4.00" shape="202.05,203.50 201.69,205.96 200.61,206.90 199.95,206.68"/>
    </edge>
    <edge id=":103_10" function="internal">
        <lane id=":103_10_0" index="0" speed="12.50" length="2.53" width="4.00" shape="202.05,203.50 200.80,201.30"/>
    </edge>
    <edge id=":103_11" function="internal">
        <lane id=":103_11_0" index="0" speed="20.00" length="2.99" width="4.00" shape="202.05,203.50 201.02,205.04 200.00,205.55"/>
    </edge>
    <edge id=":103_18" function="internal">
        <lane id=":103_18_0" index="0" speed="12.50" length="4.47" width="4.00" shape="199.95,206.68 198.82,206.31 196.30,204.20"/>
    </edge>
    <edge id=":103_19" function="internal">
        <lane id=":103_19_0" index="0" speed="20.00" length="2.99" width="4.00" shape="200.00,205.55 198.97,205.04 197.95,203.50"/>
    </edge>
    <edge id=":103_12" function="internal">
        <lane id=":103_12_0" index="0" speed="5.00" length="1.82" width="4.00" shape="199.20,201.30 199.60,201.60 200.00,201.70 200.40,201.60 200.80,201.30"/>
    </edge>
    <edge id=":103_13" function="internal">
        <lane id=":103_13_0" index="0" speed="12.50" length="7.64" width="4.00" shape="199.20,201.30 200.45,202.80 201.34,204.45 201.87,206.24 202.05,208.18"/>
    </edge>
    <edge id=":103_14" function="internal">
        <lane id=":103_14_0" index="0" speed="12.50" length="2.53" width="4.00" shape="199.20,201.30 197.95,203.50"/>
    </edge>
    <edge id=":103_15" function="internal">
        <lane id=":103_15_0" index="0" speed="5.00" length="5.99" width="4.00" shape="199.20,201.30 199.57,203.12 199.20,204.20 198.12,204.57 196.30,204.20"/>
    </edge>
    <edge id=":104_0" function="internal">
        <lane id=":104_0_0" index="0" speed="12.50" length="4.42" width="4.00" shape="195.80,203.70 194.93,202.98 193.98,202.46 192.94,202.15 191.82,202.05"/>
    </edge>
    <edge id=":104_1" function="internal">
        <lane id=":104_1_0" index="0" speed="5.00" length="8.43" width="4.00" shape="195.80,203.70 194.41,201.85 193.95,200.00 194.41,198.15 195.80,196.30"/>
    </edge>
    <edge id=":104_2" function="internal">
        <lane id=":104_2_0" index="0" speed="12.50" length="9.09" width="4.00" shape="195.80,203.70 193.69,201.18 193.10,199.39 194.04,198.31 196.50,197.95"/>
    </edge>
    <edge id=":104_3" function="internal">
        <lane id=":104_3_0" index="0" speed="5.00" length="5.99" width="4.00" shape="195.80,203.70 195.43,201.88 195.80,200.80 196.88,200.43 198.70,200.80"/>
    </edge>
    <edge id=":104_4" function="internal">
        <lane id=":104_4_0" index="0" speed="20.00" length="4.68" width="4.00" shape="196.50,202.05 191.82,202.05"/>
    </edge>
    <edge id=":104_5" function="internal">
        <lane id=":104_5_0" index="0" speed="12.50" length="4.61" width="4.00" shape="196.50,202.05 194.04,201.69 193.10,200.61 193.32,199.95"/>
    </edge>
    <edge id=":104_6" function="internal">
        <lane id=":104_6_0" index="0" speed="12.50" length="2.53" width="4.00" shape="196.50,202.05 198.70,200.80"/>
    </edge>
    <edge id=":104_7" function="internal">
        <lane id=":104_7_0" index="0" speed="20.00" length="2.99" width="4.00" shape="196.50,202.05 194.96,201.02 194.45,200.00"/>
    </edge>
    <edge id=":104_16" function="internal">
        <lane id=":104_16_0" index="0" speed="12.50" length="4.47" width="4.00" shape="193.32,199.95 193.69,198.82 195.80,196.30"/>
    </edge>
    <edge id=":104_17" function="internal">
        <lane id=":104_17_0" index="0" speed="20.00" length="2.99" width="4.00" shape="194.45,200.00 194.96,198.97 196.50,197.95"/>
    </edge>
    <edge id=":104_8" function="internal">
        <lane id=":104_8_0" index="0" speed="5.00" length="1.82" width="4.00" shape="198.70,199.20 198.40,199.60 198.30,200.00 198.40,200.40 198.70,200.80"/>
    </edge>
    <edge id=":104_9" function="internal">
        <lane id=":104_9_0" index="0" speed="12.50" length="7.64" width="4.00" shape="198.70,199.20 197.20,200.45 195.55,201.34 193.76,201.87 191.82,202.05"/>
    </edge>
    <edge id=":104_10" function="internal">
        <lane id=":104_10_0" index="0" speed="12.50" length="2.53" width="4.00" shape="198.70,199.20 196.50,197.95"/>
    </edge>
    <edge id=":104_11" function="internal">
        <lane id=":104_11_0" index="0" speed="5.00" length="5.99" width="4.00" shape="198.70,199.20 196.88,199.57 195.80,199.20 195.43,198.12 195.80,196.30"/>
    </edge>
    <edge id=":104_12" function="internal">
        <lane id=":104_12_0" index="0" speed="12.50" length="4.42" width="4.00" shape="191.82,197.95 192.94,197.85 193.98,197.54 194.93,197.02 195.80,196.30"/>
    </edge>
    <edge id=":104_13" function="internal">
        <lane id=":104_13_0" index="0" speed="20.00" length="4.68" width="4.00" shape="191.82,197.95 196.50,197.95"/>
    </edge>
    <edge id=":104_14" function="internal">
        <lane id=":104_14_0" index="0" speed="12.50" length="5.48" width="4.00" shape="191.82,197.95 193.76,198.13 195.55,198.66 197.02,199.45"/>
    </edge>
    <edge id=":104_15" function="internal">
        <lane id=":104_15_0" index="0" speed="20.00" length="2.99" width="4.00" shape="191.82,197.95 193.36,198.98 193.87,200.00"/>
    </edge>
    <edge id=":104_18" function="internal">
        <lane id=":104_18_0" index="0" speed="12.50" length="2.16" width="4.00" shape="197.02,199.45 197.20,199.55 198.70,200.80"/>
    </edge>
    <edge id=":104_19" function="internal">
        <lane id=":104_19_0" index="0" speed="20.00" length="2.99" width="4.00" shape="193.87,200.00 193.36,201.03 191.82,202.05"/>
    </edge>
    <edge id=":2_0" function="internal">
        <lane id=":2_0_0" index="0" speed="20.00" length="5.99" width="4.00" shape="400.00,197.95 401.54,198.98 402.05,200.00 401.54,201.03 400.00,202.05"/>
    </edge>
    <edge id=":3_0" function="internal">
        <lane id=":3_0_0" index="0" speed="20.00" length="5.99" width="4.00" shape="202.05,400.00 201.02,401.54 200.00,402.05 198.97,401.54 197.95,400.00"/>
    </edge>
    <edge id=":4_0" function="internal">
        <lane id=":4_0_0" index="0" speed="20.00" length="5.99" width="4.00" shape="0.00,202.05 -1.54,201.02 -2.05,200.00 -1.54,198.97 0.00,197.95"/>
    </edge>

    <edge id="101to1" from="101" to="1" priority="2">
        <lane id="101to1_0" index="0" speed="20.00" length="191.82" width="4.00" shape="197.95,191.82 197.95,0.00"/>
    </edge>
    <edge id="101to102" from="101" to="102" priority="2">
        <lane id="101to102_0" index="0" speed="5.00" length="0.72" width="4.00" shape="203.70,195.80 204.20,196.30"/>
    </edge>
    <edge id="101to103" from="101" to="103" priority="2">
        <lane id="101to103_0" index="0" speed="20.00" length="7.00" width="4.00" shape="202.05,196.50 202.05,203.50"/>
    </edge>
    <edge id="101to104" from="101" to="104" priority="2">
        <lane id="101to104_0" index="0" speed="5.00" length="0.72" width="4.00" shape="199.20,198.70 198.70,199.20"/>
    </edge>
    <edge id="102to101" from="102" to="101" priority="2">
        <lane id="102to101_0" index="0" speed="5.00" length="0.72" width="4.00" shape="201.30,199.20 200.80,198.70"/>
    </edge>
    <edge id="102to103" from="102" to="103" priority="2">
        <lane id="102to103_0" index="0" speed="5.00" length="0.72" width="4.00" shape="204.20,203.70 203.70,204.20"/>
    </edge>
    <edge id="102to104" from="102" to="104" priority="2">
        <lane id="102to104_0" index="0" speed="20.00" length="7.00" width="4.00" shape="203.50,202.05 196.50,202.05"/>
    </edge>
    <edge id="102to2" from="102" to="2" priority="2">
        <lane id="102to2_0" index="0" speed="20.00" length="191.82" width="4.00" shape="208.18,197.95 400.00,197.95"/>
    </edge>
    <edge id="103to101" from="103" to="101" priority="2">
        <lane id="103to101_0" index="0" speed="20.00" length="7.00" width="4.00" shape="197.95,203.50 197.95,196.50"/>
    </edge>
    <edge id="103to102" from="103" to="102" priority="2">
        <lane id="103to102_0" index="0" speed="5.00" length="0.72" width="4.00" shape="200.80,201.30 201.30,200.80"/>
    </edge>
    <edge id="103to104" from="103" to="104" priority="2">
        <lane id="103to104_0" index="0" speed="5.00" length="0.72" width="4.00" shape="196.30,204.20 195.80,203.70"/>
    </edge>
    <edge id="103to3" from="103" to="3" priority="2">
        <lane id="103to3_0" index="0" speed="20.00" length="191.82" width="4.00" shape="202.05,208.18 202.05,400.00"/>
    </edge>
    <edge id="104to101" from="104" to="101" priority="2">
        <lane id="104to101_0" index="0" speed="5.00" length="0.72" width="4.00" shape="195.80,196.30 196.30,195.80"/>
    </edge>
    <edge id="104to102" from="104" to="102" priority="2">
        <lane id="104to102_0" index="0" speed="20.00" length="7.00" width="4.00" shape="196.50,197.95 203.50,197.95"/>
    </edge>
    <edge id="104to103" from="104" to="103" priority="2">
        <lane id="104to103_0" index="0" speed="5.00" length="0.72" width="4.00" shape="198.70,200.80 199.20,201.30"/>
    </edge>
    <edge id="104to4" from="104" to="4" priority="2">
        <lane id="104to4_0" index="0" speed="20.00" length="191.82" width="4.00" shape="191.82,202.05 0.00,202.05"/>
    </edge>
    <edge id="1to101" from="1" to="101" priority="2">
        <lane id="1to101_0" index="0" speed="20.00" length="191.82" width="4.00" shape="202.05,0.00 202.05,191.82"/>
    </edge>
    <edge id="2to102" from="2" to="102" priority="2">
        <lane id="2to102_0" index="0" speed="20.00" length="191.82" width="4.00" shape="400.00,202.05 208.18,202.05"/>
    </edge>
    <edge id="3to103" from="3" to="103" priority="2">
        <lane id="3to103_0" index="0" speed="20.00" length="191.82" width="4.00" shape="197.95,400.00 197.95,208.18"/>
    </edge>
    <edge id="4to104" from="4" to="104" priority="2">
        <lane id="4to104_0" index="0" speed="20.00" length="191.82" width="4.00" shape="0.00,197.95 191.82,197.95"/>
    </edge>

    <junction id="1" type="priority" x="200.00" y="0.00" incLanes="101to1_0" intLanes=":1_0_0" shape="200.05,0.00 195.95,0.00 199.95,0.00">
        <request index="0" response="0" foes="0" cont="0"/>
    </junction>
    <junction id="101" type="priority" x="200.00" y="195.00" incLanes="103to101_0 102to101_0 1to101_0 104to101_0" intLanes=":101_0_0 :101_16_0 :101_2_0 :101_17_0 :101_4_0 :101_5_0 :101_6_0 :101_7_0 :101_8_0 :101_9_0 :101_18_0 :101_19_0 :101_12_0 :101_13_0 :101_14_0 :101_15_0" shape="195.95,196.50 204.05,196.50 199.38,200.11 205.11,194.38 204.05,191.82 195.95,191.82 194.89,194.38 200.62,200.11">
        <request index="0" response="0000000000000000" foes="0111110000110000" cont="0"/>
        <request index="1" response="0000001100000000" foes="0110001110110000" cont="1"/>
        <request index="2" response="0000000000000000" foes="1000010000010000" cont="0"/>
        <request index="3" response="0100001001000000" foes="0100001001000000" cont="1"/>
        <request index="4" response="0000011000000111" foes="1100011000000111" cont="0"/>
        <request index="5" response="0011011000000011" foes="0011111000000011" cont="0"/>
        <request index="6" response="0000001000000000" foes="0100001000001000" cont="0"/>
        <request index="7" response="0010000100000010" foes="0010000100000010" cont="0"/>
        <request index="8" response="0000000000000000" foes="0010000010000010" cont="0"/>
        <request index="9" response="0000000000000000" foes="0110000001111010" cont="0"/>
        <request index="10" response="0000000000000101" foes="1110000000110101" cont="1"/>
        <request index="11" response="0001000000100001" foes="0001000000100001" cont="1"/>
        <request index="12" response="0000000000000001" foes="0000100000100001" cont="0"/>
        <request index="13" response="0000011100000011" foes="0000011110100011" cont="0"/>
        <request index="14" response="0000011001010011" foes="0000011001011011" cont="0"/>
        <request index="15" response="0000010000010100" foes="0000010000010100" cont="0"/>
    </junction>
    <junction id="102" type="priority" x="205.00" y="200.00" incLanes="2to102_0 101to102_0 104to102_0 103to102_0" intLanes=":102_0_0 :102_1_0 :102_16_0 :102_17_0 :102_4_0 :102_5_0 :102_6_0 :102_7_0 :102_8_0 :102_18_0 :102_10_0 :102_19_0 :102_12_0 :102_13_0 :102_14_0 :102_15_0" shape="208.18,204.05 208.18,195.95 205.62,194.89 199.89,200.62 203.50,195.95 203.50,204.05 199.89,199.38 205.62,205.11">
        <request index="0" response="0000000000000000" foes="1000001000100000" cont="0"/>
        <request index="1" response="0000000000000000" foes="0111101001100000" cont="0"/>
        <request index="2" response="0000010100000000" foes="0011010111100000" cont="1"/>
        <request index="3" response="0010000100010000" foes="0010000100010000" cont="1"/>
        <request index="4" response="0000000100000000" foes="0010000100001000" cont="0"/>
        <request index="5" response="0000001100000111" foes="1010001100000111" cont="0"/>
        <request index="6" response="0101001100000110" foes="0101101100000110" cont="0"/>
        <request index="7" response="0001010000000100" foes="0001010000000100" cont="0"/>
        <request index="8" response="0000000000000000" foes="0011000001111100" cont="0"/>
        <request index="9" response="0000000000000011" foes="1011000001100011" cont="1"/>
        <request index="10" response="0000000000000000" foes="0001000010000100" cont="0"/>
        <request index="11" response="0100000001000010" foes="0100000001000010" cont="1"/>
        <request index="12" response="0000011100000110" foes="0000011111000110" cont="0"/>
        <request index="13" response="0000001100110110" foes="0000001100111110" cont="0"/>
        <request index="14" response="0000000000000010" foes="0000100001000010" cont="0"/>
        <request index="15" response="0000001000100001" foes="0000001000100001" cont="0"/>
    </junction>
    <junction id="103" type="priority" x="200.00" y="205.00" incLanes="3to103_0 102to103_0 101to103_0 104to103_0" intLanes=":103_0_0 :103_1_0 :103_16_0 :103_17_0 :103_4_0 :103_5_0 :103_6_0 :103_7_0 :103_8_0 :103_18_0 :103_10_0 :103_19_0 :103_12_0 :103_13_0 :103_14_0 :103_15_0" shape="195.95,208.18 204.05,208.18 205.11,205.62 199.38,199.89 204.05,203.50 195.95,203.50 200.62,199.89 194.89,205.62">
        <request index="0" response="0000000000000000" foes="1000001000100000" cont="0"/>
        <request index="1" response="0000000000000000" foes="0111101001100000" cont="0"/>
        <request index="2" response="0000010100000000" foes="0011010111100000" cont="1"/>
        <request index="3" response="0010000100010000" foes="0010000100010000" cont="1"/>
        <request index="4" response="0000000100000000" foes="0010000100001000" cont="0"/>
        <request index="5" response="0000001100000111" foes="1010001100000111" cont="0"/>
        <request index="6" response="0101001100000110" foes="0101101100000110" cont="0"/>
        <request index="7" response="0001010000000100" foes="0001010000000100" cont="0"/>
        <request index="8" response="0000000000000000" foes="0011000001111100" cont="0"/>
        <request index="9" response="0000000000000011" foes="1011000001100011" cont="1"/>
        <request index="10" response="0000000000000000" foes="0001000010000100" cont="0"/>
        <request index="11" response="0100000001000010" foes="0100000001000010" cont="1"/>
        <request index="12" response="0000011100000110" foes="0000011111000110" cont="0"/>
        <request index="13" response="0000001100110110" foes="0000001100111110" cont="0"/>
        <request index="14" response="0000000000000010" foes="0000100001000010" cont="0"/>
        <request index="15" response="0000001000100001" foes="0000001000100001" cont="0"/>
    </junction>
    <junction id="104" type="priority" x="195.00" y="200.00" incLanes="103to104_0 102to104_0 101to104_0 4to104_0" intLanes=":104_0_0 :104_1_0 :104_2_0 :104_3_0 :104_4_0 :104_16_0 :104_6_0 :104_17_0 :104_8_0 :104_9_0 :104_10_0 :104_11_0 :104_12_0 :104_13_0 :104_18_0 :104_19_0" shape="194.38,205.11 200.11,199.38 196.50,204.05 196.50,195.95 200.11,200.62 194.38,194.89 191.82,195.95 191.82,204.05">
        <request index="0" response="0000000000010000" foes="1000001000010000" cont="0"/>
        <request index="1" response="0111000000110000" foes="0111101000110000" cont="0"/>
        <request index="2" response="0110010100110000" foes="0110010110110000" cont="0"/>
        <request index="3" response="0100000101000000" foes="0100000101000000" cont="0"/>
        <request index="4" response="0000000000000000" foes="1100001100000111" cont="0"/>
        <request index="5" response="0011000000000000" foes="0011101100000110" cont="1"/>
        <request index="6" response="0000000000000000" foes="0100000100001000" cont="0"/>
        <request index="7" response="0010010000000100" foes="0010010000000100" cont="1"/>
        <request index="8" response="0110000001110000" foes="0110000001111100" cont="0"/>
        <request index="9" response="0110000000110011" foes="1110000000110011" cont="0"/>
        <request index="10" response="0010000000000000" foes="0010000010000100" cont="0"/>
        <request index="11" response="0001000000100010" foes="0001000000100010" cont="0"/>
        <request index="12" response="0000000000000000" foes="0000100000100010" cont="0"/>
        <request index="13" response="0000000000000000" foes="0000011110100110" cont="0"/>
        <request index="14" response="0000000001010000" foes="0000001101011110" cont="1"/>
        <request index="15" response="0000001000010001" foes="0000001000010001" cont="1"/>
    </junction>
    <junction id="2" type="priority" x="400.00" y="200.00" incLanes="102to2_0" intLanes=":2_0_0" shape="400.00,200.05 400.00,195.95 400.00,199.95">
        <request index="0" response="0" foes="0" cont="0"/>
    </junction>
    <junction id="3" type="priority" x="200.00" y="400.00" incLanes="103to3_0" intLanes=":3_0_0" shape="199.95,400.00 204.05,400.00 200.05,400.00">
        <request index="0" response="0" foes="0" cont="0"/>
    </junction>
    <junction id="4" type="priority" x="0.00" y="200.00" incLanes="104to4_0" intLanes=":4_0_0" shape="0.00,199.95 0.00,204.05 0.00,200.05">
        <request index="0" response="0" foes="0" cont="0"/>
    </junction>

    <junction id=":101_16_0" type="internal" x="200.05" y="193.32" incLanes=":101_1_0 1to101_0" intLanes=":101_4_0 :101_5_0 :101_7_0 :101_8_0 :101_9_0 :101_13_0 :101_14_0"/>
    <junction id=":101_17_0" type="internal" x="200.00" y="194.45" incLanes=":101_3_0 102to101_0 104to101_0 1to101_0" intLanes=":101_6_0 :101_9_0 :101_14_0"/>
    <junction id=":101_18_0" type="internal" x="200.55" y="197.02" incLanes=":101_10_0 103to101_0" intLanes=":101_0_0 :101_2_0 :101_4_0 :101_5_0 :101_13_0 :101_14_0 :101_15_0"/>