<!-- Describe the connected edges of the road network -->
<edges>
    <edge id="1to101" from="1" to="101" priority="2" numLanes="1" speed="20" width='4.0'/>
    <edge id="101to1" from="101" to="1" priority="2" numLanes="1" speed="20" width='4.0'/>    
    
    <edge id="2to102" from="2" to="102" priority="2" numLanes="1" speed="20" width='4.0'/>
    <edge id="102to2" from="102" to="2" priority="2" numLanes="1" speed="20" width='4.0'/>
    
    <edge id="3to103" from="3" to="103" priority="2" numLanes="1" speed="20" width='4.0'/>
    <edge id="103to3" from="103" to="3" priority="2" numLanes="1" speed="20" width='4.0'/>
    
    <edge id="4to104" from="4" to="104" priority="2" numLanes="1" speed="20" width='4.0'/>
    <edge id="104to4" from="104" to="4" priority="2" numLanes="1" speed="20" width='4.0'/>
    
    <edge id="101to102" from="101" to="102" priority="2" numLanes="1" speed="5" width='4.0'/>
    <edge id="102to101" from="102" to="101" priority="2" numLanes="1" speed="5" width='4.0'/>
    <edge id="101to103" from="101" to="103" priority="2" numLanes="1" speed="20" width='4.0'/>
    <edge id="103to101" from="103" to="101" priority="2" numLanes="1" speed="20" width='4.0'/>
    <edge id="101to104" from="101" to="104" priority="2" numLanes="1" speed="5" width='4.0'/>
    <edge id="104to101" from="104" to="101" priority="2" numLanes="1" speed="5" width='4.0'/>
    
    <edge id="102to103" from="102" to="103" priority="2" numLanes="1" speed="5" width='4.0'/>
    <edge id="103to102" from="103" to="102" priority="2" numLanes="1" speed="5" width='4.0'/>
    <edge id="102to104" from="102" to="104" priority="2" numLanes="1" speed="20" width='4.0'/>
    <edge id="104to102" from="104" to="102" priority="2" numLanes="1" speed="20" width='4.0'/>
    
    <edge id="103to104" from="103" to="104" priority="2" numLanes="1" speed="5" width='4.0'/>
    <edge id="104to103" from="104" to="103" priority="2" numLanes="1" speed="5" width='4.0'/>
    
</edges>
